data_image0
_cell_length_a       11.045
_cell_length_b       11.715
_cell_length_c       37.7544
_cell_angle_alpha    90
_cell_angle_beta     90
_cell_angle_gamma    90

_symmetry_space_group_name_H-M    "P 1"
_symmetry_int_tables_number       1

loop_
  _symmetry_equiv_pos_as_xyz
  'x, y, z'

loop_
  _atom_site_label
  _atom_site_occupancy
  _atom_site_fract_x
  _atom_site_fract_y
  _atom_site_fract_z
  _atom_site_thermal_displace_type
  _atom_site_B_iso_or_equiv
  _atom_site_type_symbol
  Sr1      1.0000 0.00000  0.00000  0.07946  Biso   1.000  Sr
  Ti1      1.0000 0.25000  0.16667  0.07946  Biso   1.000  Ti
  O1       1.0000 0.25000  0.00000  0.07946  Biso   1.000  O
  O2       1.0000 0.12500  0.16667  0.11603  Biso   1.000  O
  O3       1.0000 0.37500  0.16667  0.11603  Biso   1.000  O
  Sr2      1.0000 0.25000  0.00000  0.15260  Biso   1.000  Sr
  Ti2      1.0000 0.00000  0.16667  0.15260  Biso   1.000  Ti
  O4       1.0000 0.00000  0.00000  0.15260  Biso   1.000  O
  O5       1.0000 0.37500  0.16667  0.18917  Biso   1.000  O
  O6       1.0000 0.12500  0.16667  0.18917  Biso   1.000  O
  Sr3      1.0000 0.00000  0.00000  0.22574  Biso   1.000  Sr
  Ti3      1.0000 0.25000  0.16667  0.22574  Biso   1.000  Ti
  O7       1.0000 0.25000  0.00000  0.22574  Biso   1.000  O
  O8       1.0000 0.12500  0.16667  0.26230  Biso   1.000  O
  O9       1.0000 0.37500  0.16667  0.26230  Biso   1.000  O
  Sr4      1.0000 0.25000  0.00000  0.29887  Biso   1.000  Sr
  Ti4      1.0000 0.00000  0.16667  0.29887  Biso   1.000  Ti
  O10      1.0000 0.00000  0.00000  0.29887  Biso   1.000  O
  O11      1.0000 0.37500  0.16667  0.33544  Biso   1.000  O
  O12      1.0000 0.12500  0.16667  0.33544  Biso   1.000  O
  Sr5      1.0000 0.00000  0.00000  0.37201  Biso   1.000  Sr
  Ti5      1.0000 0.25000  0.16667  0.37201  Biso   1.000  Ti
  O13      1.0000 0.25000  0.00000  0.37201  Biso   1.000  O
  O14      1.0000 0.12500  0.16667  0.40858  Biso   1.000  O
  O15      1.0000 0.37500  0.16667  0.40858  Biso   1.000  O
  Sr6      1.0000 0.25000  0.00000  0.44515  Biso   1.000  Sr
  Ti6      1.0000 0.00000  0.16667  0.44515  Biso   1.000  Ti
  O16      1.0000 0.00000  0.00000  0.44515  Biso   1.000  O
  O17      1.0000 0.37500  0.16667  0.48172  Biso   1.000  O
  O18      1.0000 0.12500  0.16667  0.48172  Biso   1.000  O
  Sr7      1.0000 0.00000  0.00000  0.51828  Biso   1.000  Sr
  Ti7      1.0000 0.25000  0.16667  0.51828  Biso   1.000  Ti
  O19      1.0000 0.25000  0.00000  0.51828  Biso   1.000  O
  O20      1.0000 0.12500  0.16667  0.55485  Biso   1.000  O
  O21      1.0000 0.37500  0.16667  0.55485  Biso   1.000  O
  Sr8      1.0000 0.25000  0.00000  0.59142  Biso   1.000  Sr
  Ti8      1.0000 0.00000  0.16667  0.59142  Biso   1.000  Ti
  O22      1.0000 0.00000  0.00000  0.59142  Biso   1.000  O
  O23      1.0000 0.37500  0.16667  0.62799  Biso   1.000  O
  O24      1.0000 0.12500  0.16667  0.62799  Biso   1.000  O
  Sr9      1.0000 0.00000  0.00000  0.66456  Biso   1.000  Sr
  Ti9      1.0000 0.25000  0.16667  0.66456  Biso   1.000  Ti
  O25      1.0000 0.25000  0.00000  0.66456  Biso   1.000  O
  O26      1.0000 0.12500  0.16667  0.70113  Biso   1.000  O
  O27      1.0000 0.37500  0.16667  0.70113  Biso   1.000  O
  Sr10     1.0000 0.25000  0.00000  0.73770  Biso   1.000  Sr
  Ti10     1.0000 0.00000  0.16667  0.73770  Biso   1.000  Ti
  O28      1.0000 0.00000  0.00000  0.73770  Biso   1.000  O
  O29      1.0000 0.37500  0.16667  0.77426  Biso   1.000  O
  O30      1.0000 0.12500  0.16667  0.77426  Biso   1.000  O
  Sr11     1.0000 0.00000  0.00000  0.81083  Biso   1.000  Sr
  Ti11     1.0000 0.25000  0.16667  0.81083  Biso   1.000  Ti
  O31      1.0000 0.25000  0.00000  0.81083  Biso   1.000  O
  O32      1.0000 0.12500  0.16667  0.84740  Biso   1.000  O
  O33      1.0000 0.37500  0.16667  0.84740  Biso   1.000  O
  Sr12     1.0000 0.25000  0.00000  0.88397  Biso   1.000  Sr
  Ti12     1.0000 0.00000  0.16667  0.88397  Biso   1.000  Ti
  O34      1.0000 0.00000  0.00000  0.88397  Biso   1.000  O
  O35      1.0000 0.37500  0.16667  0.92054  Biso   1.000  O
  O36      1.0000 0.12500  0.16667  0.92054  Biso   1.000  O
  Sr13     1.0000 0.00000  0.33333  0.07946  Biso   1.000  Sr
  Ti13     1.0000 0.25000  0.50000  0.07946  Biso   1.000  Ti
  O37      1.0000 0.25000  0.33333  0.07946  Biso   1.000  O
  O38      1.0000 0.12500  0.50000  0.11603  Biso   1.000  O
  O39      1.0000 0.37500  0.50000  0.11603  Biso   1.000  O
  Sr14     1.0000 0.25000  0.33333  0.15260  Biso   1.000  Sr
  Ti14     1.0000 0.00000  0.50000  0.15260  Biso   1.000  Ti
  O40      1.0000 0.00000  0.33333  0.15260  Biso   1.000  O
  O41      1.0000 0.37500  0.50000  0.18917  Biso   1.000  O
  O42      1.0000 0.12500  0.50000  0.18917  Biso   1.000  O
  Sr15     1.0000 0.00000  0.33333  0.22574  Biso   1.000  Sr
  Ti15     1.0000 0.25000  0.50000  0.22574  Biso   1.000  Ti
  O43      1.0000 0.25000  0.33333  0.22574  Biso   1.000  O
  O44      1.0000 0.12500  0.50000  0.26230  Biso   1.000  O
  O45      1.0000 0.37500  0.50000  0.26230  Biso   1.000  O
  Sr16     1.0000 0.25000  0.33333  0.29887  Biso   1.000  Sr
  Ti16     1.0000 0.00000  0.50000  0.29887  Biso   1.000  Ti
  O46      1.0000 0.00000  0.33333  0.29887  Biso   1.000  O
  O47      1.0000 0.37500  0.50000  0.33544  Biso   1.000  O
  O48      1.0000 0.12500  0.50000  0.33544  Biso   1.000  O
  Sr17     1.0000 0.00000  0.33333  0.37201  Biso   1.000  Sr
  Ti17     1.0000 0.25000  0.50000  0.37201  Biso   1.000  Ti
  O49      1.0000 0.25000  0.33333  0.37201  Biso   1.000  O
  O50      1.0000 0.12500  0.50000  0.40858  Biso   1.000  O
  O51      1.0000 0.37500  0.50000  0.40858  Biso   1.000  O
  Sr18     1.0000 0.25000  0.33333  0.44515  Biso   1.000  Sr
  Ti18     1.0000 0.00000  0.50000  0.44515  Biso   1.000  Ti
  O52      1.0000 0.00000  0.33333  0.44515  Biso   1.000  O
  O53      1.0000 0.37500  0.50000  0.48172  Biso   1.000  O
  O54      1.0000 0.12500  0.50000  0.48172  Biso   1.000  O
  Sr19     1.0000 0.00000  0.33333  0.51828  Biso   1.000  Sr
  Ti19     1.0000 0.25000  0.50000  0.51828  Biso   1.000  Ti
  O55      1.0000 0.25000  0.33333  0.51828  Biso   1.000  O
  O56      1.0000 0.12500  0.50000  0.55485  Biso   1.000  O
  O57      1.0000 0.37500  0.50000  0.55485  Biso   1.000  O
  Sr20     1.0000 0.25000  0.33333  0.59142  Biso   1.000  Sr
  Ti20     1.0000 0.00000  0.50000  0.59142  Biso   1.000  Ti
  O58      1.0000 0.00000  0.33333  0.59142  Biso   1.000  O
  O59      1.0000 0.37500  0.50000  0.62799  Biso   1.000  O
  O60      1.0000 0.12500  0.50000  0.62799  Biso   1.000  O
  Sr21     1.0000 0.00000  0.33333  0.66456  Biso   1.000  Sr
  Ti21     1.0000 0.25000  0.50000  0.66456  Biso   1.000  Ti
  O61      1.0000 0.25000  0.33333  0.66456  Biso   1.000  O
  O62      1.0000 0.12500  0.50000  0.70113  Biso   1.000  O
  O63      1.0000 0.37500  0.50000  0.70113  Biso   1.000  O
  Sr22     1.0000 0.25000  0.33333  0.73770  Biso   1.000  Sr
  Ti22     1.0000 0.00000  0.50000  0.73770  Biso   1.000  Ti
  O64      1.0000 0.00000  0.33333  0.73770  Biso   1.000  O
  O65      1.0000 0.37500  0.50000  0.77426  Biso   1.000  O
  O66      1.0000 0.12500  0.50000  0.77426  Biso   1.000  O
  Sr23     1.0000 0.00000  0.33333  0.81083  Biso   1.000  Sr
  Ti23     1.0000 0.25000  0.50000  0.81083  Biso   1.000  Ti
  O67      1.0000 0.25000  0.33333  0.81083  Biso   1.000  O
  O68      1.0000 0.12500  0.50000  0.84740  Biso   1.000  O
  O69      1.0000 0.37500  0.50000  0.84740  Biso   1.000  O
  Sr24     1.0000 0.25000  0.33333  0.88397  Biso   1.000  Sr
  Ti24     1.0000 0.00000  0.50000  0.88397  Biso   1.000  Ti
  O70      1.0000 0.00000  0.33333  0.88397  Biso   1.000  O
  O71      1.0000 0.37500  0.50000  0.92054  Biso   1.000  O
  O72      1.0000 0.12500  0.50000  0.92054  Biso   1.000  O
  Sr25     1.0000 0.00000  0.66667  0.07946  Biso   1.000  Sr
  Ti25     1.0000 0.25000  0.83333  0.07946  Biso   1.000  Ti
  O73      1.0000 0.25000  0.66667  0.07946  Biso   1.000  O
  O74      1.0000 0.12500  0.83333  0.11603  Biso   1.000  O
  O75      1.0000 0.37500  0.83333  0.11603  Biso   1.000  O
  Sr26     1.0000 0.25000  0.66667  0.15260  Biso   1.000  Sr
  Ti26     1.0000 0.00000  0.83333  0.15260  Biso   1.000  Ti
  O76      1.0000 0.00000  0.66667  0.15260  Biso   1.000  O
  O77      1.0000 0.37500  0.83333  0.18917  Biso   1.000  O
  O78      1.0000 0.12500  0.83333  0.18917  Biso   1.000  O
  Sr27     1.0000 0.00000  0.66667  0.22574  Biso   1.000  Sr
  Ti27     1.0000 0.25000  0.83333  0.22574  Biso   1.000  Ti
  O79      1.0000 0.25000  0.66667  0.22574  Biso   1.000  O
  O80      1.0000 0.12500  0.83333  0.26230  Biso   1.000  O
  O81      1.0000 0.37500  0.83333  0.26230  Biso   1.000  O
  Sr28     1.0000 0.25000  0.66667  0.29887  Biso   1.000  Sr
  Ti28     1.0000 0.00000  0.83333  0.29887  Biso   1.000  Ti
  O82      1.0000 0.00000  0.66667  0.29887  Biso   1.000  O
  O83      1.0000 0.37500  0.83333  0.33544  Biso   1.000  O
  O84      1.0000 0.12500  0.83333  0.33544  Biso   1.000  O
  Sr29     1.0000 0.00000  0.66667  0.37201  Biso   1.000  Sr
  Ti29     1.0000 0.25000  0.83333  0.37201  Biso   1.000  Ti
  O85      1.0000 0.25000  0.66667  0.37201  Biso   1.000  O
  O86      1.0000 0.12500  0.83333  0.40858  Biso   1.000  O
  O87      1.0000 0.37500  0.83333  0.40858  Biso   1.000  O
  Sr30     1.0000 0.25000  0.66667  0.44515  Biso   1.000  Sr
  Ti30     1.0000 0.00000  0.83333  0.44515  Biso   1.000  Ti
  O88      1.0000 0.00000  0.66667  0.44515  Biso   1.000  O
  O89      1.0000 0.37500  0.83333  0.48172  Biso   1.000  O
  O90      1.0000 0.12500  0.83333  0.48172  Biso   1.000  O
  Sr31     1.0000 0.00000  0.66667  0.51828  Biso   1.000  Sr
  Ti31     1.0000 0.25000  0.83333  0.51828  Biso   1.000  Ti
  O91      1.0000 0.25000  0.66667  0.51828  Biso   1.000  O
  O92      1.0000 0.12500  0.83333  0.55485  Biso   1.000  O
  O93      1.0000 0.37500  0.83333  0.55485  Biso   1.000  O
  Sr32     1.0000 0.25000  0.66667  0.59142  Biso   1.000  Sr
  Ti32     1.0000 0.00000  0.83333  0.59142  Biso   1.000  Ti
  O94      1.0000 0.00000  0.66667  0.59142  Biso   1.000  O
  O95      1.0000 0.37500  0.83333  0.62799  Biso   1.000  O
  O96      1.0000 0.12500  0.83333  0.62799  Biso   1.000  O
  Sr33     1.0000 0.00000  0.66667  0.66456  Biso   1.000  Sr
  Ti33     1.0000 0.25000  0.83333  0.66456  Biso   1.000  Ti
  O97      1.0000 0.25000  0.66667  0.66456  Biso   1.000  O
  O98      1.0000 0.12500  0.83333  0.70113  Biso   1.000  O
  O99      1.0000 0.37500  0.83333  0.70113  Biso   1.000  O
  Sr34     1.0000 0.25000  0.66667  0.73770  Biso   1.000  Sr
  Ti34     1.0000 0.00000  0.83333  0.73770  Biso   1.000  Ti
  O100     1.0000 0.00000  0.66667  0.73770  Biso   1.000  O
  O101     1.0000 0.37500  0.83333  0.77426  Biso   1.000  O
  O102     1.0000 0.12500  0.83333  0.77426  Biso   1.000  O
  Sr35     1.0000 0.00000  0.66667  0.81083  Biso   1.000  Sr
  Ti35     1.0000 0.25000  0.83333  0.81083  Biso   1.000  Ti
  O103     1.0000 0.25000  0.66667  0.81083  Biso   1.000  O
  O104     1.0000 0.12500  0.83333  0.84740  Biso   1.000  O
  O105     1.0000 0.37500  0.83333  0.84740  Biso   1.000  O
  Sr36     1.0000 0.25000  0.66667  0.88397  Biso   1.000  Sr
  Ti36     1.0000 0.00000  0.83333  0.88397  Biso   1.000  Ti
  O106     1.0000 0.00000  0.66667  0.88397  Biso   1.000  O
  O107     1.0000 0.37500  0.83333  0.92054  Biso   1.000  O
  O108     1.0000 0.12500  0.83333  0.92054  Biso   1.000  O
  Sr37     1.0000 0.50000  0.00000  0.07946  Biso   1.000  Sr
  Ti37     1.0000 0.75000  0.16667  0.07946  Biso   1.000  Ti
  O109     1.0000 0.75000  0.00000  0.07946  Biso   1.000  O
  O110     1.0000 0.62500  0.16667  0.11603  Biso   1.000  O
  O111     1.0000 0.87500  0.16667  0.11603  Biso   1.000  O
  Sr38     1.0000 0.75000  0.00000  0.15260  Biso   1.000  Sr
  Ti38     1.0000 0.50000  0.16667  0.15260  Biso   1.000  Ti
  O112     1.0000 0.50000  0.00000  0.15260  Biso   1.000  O
  O113     1.0000 0.87500  0.16667  0.18917  Biso   1.000  O
  O114     1.0000 0.62500  0.16667  0.18917  Biso   1.000  O
  Sr39     1.0000 0.50000  0.00000  0.22574  Biso   1.000  Sr
  Ti39     1.0000 0.75000  0.16667  0.22574  Biso   1.000  Ti
  O115     1.0000 0.75000  0.00000  0.22574  Biso   1.000  O
  O116     1.0000 0.62500  0.16667  0.26230  Biso   1.000  O
  O117     1.0000 0.87500  0.16667  0.26230  Biso   1.000  O
  Sr40     1.0000 0.75000  0.00000  0.29887  Biso   1.000  Sr
  Ti40     1.0000 0.50000  0.16667  0.29887  Biso   1.000  Ti
  O118     1.0000 0.50000  0.00000  0.29887  Biso   1.000  O
  O119     1.0000 0.87500  0.16667  0.33544  Biso   1.000  O
  O120     1.0000 0.62500  0.16667  0.33544  Biso   1.000  O
  Sr41     1.0000 0.50000  0.00000  0.37201  Biso   1.000  Sr
  Ti41     1.0000 0.75000  0.16667  0.37201  Biso   1.000  Ti
  O121     1.0000 0.75000  0.00000  0.37201  Biso   1.000  O
  O122     1.0000 0.62500  0.16667  0.40858  Biso   1.000  O
  O123     1.0000 0.87500  0.16667  0.40858  Biso   1.000  O
  Sr42     1.0000 0.75000  0.00000  0.44515  Biso   1.000  Sr
  Ti42     1.0000 0.50000  0.16667  0.44515  Biso   1.000  Ti
  O124     1.0000 0.50000  0.00000  0.44515  Biso   1.000  O
  O125     1.0000 0.87500  0.16667  0.48172  Biso   1.000  O
  O126     1.0000 0.62500  0.16667  0.48172  Biso   1.000  O
  Sr43     1.0000 0.50000  0.00000  0.51828  Biso   1.000  Sr
  Ti43     1.0000 0.75000  0.16667  0.51828  Biso   1.000  Ti
  O127     1.0000 0.75000  0.00000  0.51828  Biso   1.000  O
  O128     1.0000 0.62500  0.16667  0.55485  Biso   1.000  O
  O129     1.0000 0.87500  0.16667  0.55485  Biso   1.000  O
  Sr44     1.0000 0.75000  0.00000  0.59142  Biso   1.000  Sr
  Ti44     1.0000 0.50000  0.16667  0.59142  Biso   1.000  Ti
  O130     1.0000 0.50000  0.00000  0.59142  Biso   1.000  O
  O131     1.0000 0.87500  0.16667  0.62799  Biso   1.000  O
  O132     1.0000 0.62500  0.16667  0.62799  Biso   1.000  O
  Sr45     1.0000 0.50000  0.00000  0.66456  Biso   1.000  Sr
  Ti45     1.0000 0.75000  0.16667  0.66456  Biso   1.000  Ti
  O133     1.0000 0.75000  0.00000  0.66456  Biso   1.000  O
  O134     1.0000 0.62500  0.16667  0.70113  Biso   1.000  O
  O135     1.0000 0.87500  0.16667  0.70113  Biso   1.000  O
  Sr46     1.0000 0.75000  0.00000  0.73770  Biso   1.000  Sr
  Ti46     1.0000 0.50000  0.16667  0.73770  Biso   1.000  Ti
  O136     1.0000 0.50000  0.00000  0.73770  Biso   1.000  O
  O137     1.0000 0.87500  0.16667  0.77426  Biso   1.000  O
  O138     1.0000 0.62500  0.16667  0.77426  Biso   1.000  O
  Sr47     1.0000 0.50000  0.00000  0.81083  Biso   1.000  Sr
  Ti47     1.0000 0.75000  0.16667  0.81083  Biso   1.000  Ti
  O139     1.0000 0.75000  0.00000  0.81083  Biso   1.000  O
  O140     1.0000 0.62500  0.16667  0.84740  Biso   1.000  O
  O141     1.0000 0.87500  0.16667  0.84740  Biso   1.000  O
  Sr48     1.0000 0.75000  0.00000  0.88397  Biso   1.000  Sr
  Ti48     1.0000 0.50000  0.16667  0.88397  Biso   1.000  Ti
  O142     1.0000 0.50000  0.00000  0.88397  Biso   1.000  O
  O143     1.0000 0.87500  0.16667  0.92054  Biso   1.000  O
  O144     1.0000 0.62500  0.16667  0.92054  Biso   1.000  O
  Sr49     1.0000 0.50000  0.33333  0.07946  Biso   1.000  Sr
  Ti49     1.0000 0.75000  0.50000  0.07946  Biso   1.000  Ti
  O145     1.0000 0.75000  0.33333  0.07946  Biso   1.000  O
  O146     1.0000 0.62500  0.50000  0.11603  Biso   1.000  O
  O147     1.0000 0.87500  0.50000  0.11603  Biso   1.000  O
  Sr50     1.0000 0.75000  0.33333  0.15260  Biso   1.000  Sr
  Ti50     1.0000 0.50000  0.50000  0.15260  Biso   1.000  Ti
  O148     1.0000 0.50000  0.33333  0.15260  Biso   1.000  O
  O149     1.0000 0.87500  0.50000  0.18917  Biso   1.000  O
  O150     1.0000 0.62500  0.50000  0.18917  Biso   1.000  O
  Sr51     1.0000 0.50000  0.33333  0.22574  Biso   1.000  Sr
  Ti51     1.0000 0.75000  0.50000  0.22574  Biso   1.000  Ti
  O151     1.0000 0.75000  0.33333  0.22574  Biso   1.000  O
  O152     1.0000 0.62500  0.50000  0.26230  Biso   1.000  O
  O153     1.0000 0.87500  0.50000  0.26230  Biso   1.000  O
  Sr52     1.0000 0.75000  0.33333  0.29887  Biso   1.000  Sr
  Ti52     1.0000 0.50000  0.50000  0.29887  Biso   1.000  Ti
  O154     1.0000 0.50000  0.33333  0.29887  Biso   1.000  O
  O155     1.0000 0.87500  0.50000  0.33544  Biso   1.000  O
  O156     1.0000 0.62500  0.50000  0.33544  Biso   1.000  O
  Sr53     1.0000 0.50000  0.33333  0.37201  Biso   1.000  Sr
  Ti53     1.0000 0.75000  0.50000  0.37201  Biso   1.000  Ti
  O157     1.0000 0.75000  0.33333  0.37201  Biso   1.000  O
  O158     1.0000 0.62500  0.50000  0.40858  Biso   1.000  O
  O159     1.0000 0.87500  0.50000  0.40858  Biso   1.000  O
  Sr54     1.0000 0.75000  0.33333  0.44515  Biso   1.000  Sr
  Ti54     1.0000 0.50000  0.50000  0.44515  Biso   1.000  Ti
  O160     1.0000 0.50000  0.33333  0.44515  Biso   1.000  O
  O161     1.0000 0.87500  0.50000  0.48172  Biso   1.000  O
  O162     1.0000 0.62500  0.50000  0.48172  Biso   1.000  O
  Sr55     1.0000 0.50000  0.33333  0.51828  Biso   1.000  Sr
  Ti55     1.0000 0.75000  0.50000  0.51828  Biso   1.000  Ti
  O163     1.0000 0.75000  0.33333  0.51828  Biso   1.000  O
  O164     1.0000 0.62500  0.50000  0.55485  Biso   1.000  O
  O165     1.0000 0.87500  0.50000  0.55485  Biso   1.000  O
  Sr56     1.0000 0.75000  0.33333  0.59142  Biso   1.000  Sr
  Ti56     1.0000 0.50000  0.50000  0.59142  Biso   1.000  Ti
  O166     1.0000 0.50000  0.33333  0.59142  Biso   1.000  O
  O167     1.0000 0.87500  0.50000  0.62799  Biso   1.000  O
  O168     1.0000 0.62500  0.50000  0.62799  Biso   1.000  O
  Sr57     1.0000 0.50000  0.33333  0.66456  Biso   1.000  Sr
  Ti57     1.0000 0.75000  0.50000  0.66456  Biso   1.000  Ti
  O169     1.0000 0.75000  0.33333  0.66456  Biso   1.000  O
  O170     1.0000 0.62500  0.50000  0.70113  Biso   1.000  O
  O171     1.0000 0.87500  0.50000  0.70113  Biso   1.000  O
  Sr58     1.0000 0.75000  0.33333  0.73770  Biso   1.000  Sr
  Ti58     1.0000 0.50000  0.50000  0.73770  Biso   1.000  Ti
  O172     1.0000 0.50000  0.33333  0.73770  Biso   1.000  O
  O173     1.0000 0.87500  0.50000  0.77426  Biso   1.000  O
  O174     1.0000 0.62500  0.50000  0.77426  Biso   1.000  O
  Sr59     1.0000 0.50000  0.33333  0.81083  Biso   1.000  Sr
  Ti59     1.0000 0.75000  0.50000  0.81083  Biso   1.000  Ti
  O175     1.0000 0.75000  0.33333  0.81083  Biso   1.000  O
  O176     1.0000 0.62500  0.50000  0.84740  Biso   1.000  O
  O177     1.0000 0.87500  0.50000  0.84740  Biso   1.000  O
  Sr60     1.0000 0.75000  0.33333  0.88397  Biso   1.000  Sr
  Ti60     1.0000 0.50000  0.50000  0.88397  Biso   1.000  Ti
  O178     1.0000 0.50000  0.33333  0.88397  Biso   1.000  O
  O179     1.0000 0.87500  0.50000  0.92054  Biso   1.000  O
  O180     1.0000 0.62500  0.50000  0.92054  Biso   1.000  O
  Sr61     1.0000 0.50000  0.66667  0.07946  Biso   1.000  Sr
  Ti61     1.0000 0.75000  0.83333  0.07946  Biso   1.000  Ti
  O181     1.0000 0.75000  0.66667  0.07946  Biso   1.000  O
  O182     1.0000 0.62500  0.83333  0.11603  Biso   1.000  O
  O183     1.0000 0.87500  0.83333  0.11603  Biso   1.000  O
  Sr62     1.0000 0.75000  0.66667  0.15260  Biso   1.000  Sr
  Ti62     1.0000 0.50000  0.83333  0.15260  Biso   1.000  Ti
  O184     1.0000 0.50000  0.66667  0.15260  Biso   1.000  O
  O185     1.0000 0.87500  0.83333  0.18917  Biso   1.000  O
  O186     1.0000 0.62500  0.83333  0.18917  Biso   1.000  O
  Sr63     1.0000 0.50000  0.66667  0.22574  Biso   1.000  Sr
  Ti63     1.0000 0.75000  0.83333  0.22574  Biso   1.000  Ti
  O187     1.0000 0.75000  0.66667  0.22574  Biso   1.000  O
  O188     1.0000 0.62500  0.83333  0.26230  Biso   1.000  O
  O189     1.0000 0.87500  0.83333  0.26230  Biso   1.000  O
  Sr64     1.0000 0.75000  0.66667  0.29887  Biso   1.000  Sr
  Ti64     1.0000 0.50000  0.83333  0.29887  Biso   1.000  Ti
  O190     1.0000 0.50000  0.66667  0.29887  Biso   1.000  O
  O191     1.0000 0.87500  0.83333  0.33544  Biso   1.000  O
  O192     1.0000 0.62500  0.83333  0.33544  Biso   1.000  O
  Sr65     1.0000 0.50000  0.66667  0.37201  Biso   1.000  Sr
  Ti65     1.0000 0.75000  0.83333  0.37201  Biso   1.000  Ti
  O193     1.0000 0.75000  0.66667  0.37201  Biso   1.000  O
  O194     1.0000 0.62500  0.83333  0.40858  Biso   1.000  O
  O195     1.0000 0.87500  0.83333  0.40858  Biso   1.000  O
  Sr66     1.0000 0.75000  0.66667  0.44515  Biso   1.000  Sr
  Ti66     1.0000 0.50000  0.83333  0.44515  Biso   1.000  Ti
  O196     1.0000 0.50000  0.66667  0.44515  Biso   1.000  O
  O197     1.0000 0.87500  0.83333  0.48172  Biso   1.000  O
  O198     1.0000 0.62500  0.83333  0.48172  Biso   1.000  O
  Sr67     1.0000 0.50000  0.66667  0.51828  Biso   1.000  Sr
  Ti67     1.0000 0.75000  0.83333  0.51828  Biso   1.000  Ti
  O199     1.0000 0.75000  0.66667  0.51828  Biso   1.000  O
  O200     1.0000 0.62500  0.83333  0.55485  Biso   1.000  O
  O201     1.0000 0.87500  0.83333  0.55485  Biso   1.000  O
  Sr68     1.0000 0.75000  0.66667  0.59142  Biso   1.000  Sr
  Ti68     1.0000 0.50000  0.83333  0.59142  Biso   1.000  Ti
  O202     1.0000 0.50000  0.66667  0.59142  Biso   1.000  O
  O203     1.0000 0.87500  0.83333  0.62799  Biso   1.000  O
  O204     1.0000 0.62500  0.83333  0.62799  Biso   1.000  O
  Sr69     1.0000 0.50000  0.66667  0.66456  Biso   1.000  Sr
  Ti69     1.0000 0.75000  0.83333  0.66456  Biso   1.000  Ti
  O205     1.0000 0.75000  0.66667  0.66456  Biso   1.000  O
  O206     1.0000 0.62500  0.83333  0.70113  Biso   1.000  O
  O207     1.0000 0.87500  0.83333  0.70113  Biso   1.000  O
  Sr70     1.0000 0.75000  0.66667  0.73770  Biso   1.000  Sr
  Ti70     1.0000 0.50000  0.83333  0.73770  Biso   1.000  Ti
  O208     1.0000 0.50000  0.66667  0.73770  Biso   1.000  O
  O209     1.0000 0.87500  0.83333  0.77426  Biso   1.000  O
  O210     1.0000 0.62500  0.83333  0.77426  Biso   1.000  O
  Sr71     1.0000 0.50000  0.66667  0.81083  Biso   1.000  Sr
  Ti71     1.0000 0.75000  0.83333  0.81083  Biso   1.000  Ti
  O211     1.0000 0.75000  0.66667  0.81083  Biso   1.000  O
  O212     1.0000 0.62500  0.83333  0.84740  Biso   1.000  O
  O213     1.0000 0.87500  0.83333  0.84740  Biso   1.000  O
  Sr72     1.0000 0.75000  0.66667  0.88397  Biso   1.000  Sr
  Ti72     1.0000 0.50000  0.83333  0.88397  Biso   1.000  Ti
  O214     1.0000 0.50000  0.66667  0.88397  Biso   1.000  O
  O215     1.0000 0.87500  0.83333  0.92054  Biso   1.000  O
  O216     1.0000 0.62500  0.83333  0.92054  Biso   1.000  O
